LAMMPS (6 Apr 2015)
# HW4_Prob2.input

units		lj  # lj implies quantities are in LJ internal units
atom_style	atomic # Defining attributes associated with the atoms

region          simbox  block 0 8 0 8 0 8
create_box	2 simbox  # Create 2 types of atoms in the region simbox
Created orthogonal box = (0 0 0) to (8 8 8)
create_atoms    1 random 250 676 simbox # create atoms of type 1 randomly in simbox
Created 250 atoms
create_atoms    2 random 250 776 simbox # create atoms of type 2 randomly in simbox
Created 250 atoms
mass		* 1.0     # Defining the mass of all atoms

velocity	all create 0.1 87287 # Defining the velocity of the atoms to set the temperature. The final number is a random seed required for the probability distribution while the quantity before that is the temperature

pair_style	lj/cut 4 # Defining the lj potential with a interaction cutoff of 4
pair_coeff	1 1 2.0 1.0 4 # Defining the coefficients of the interaction between type 1 and type 1
pair_coeff      2 2 2.0 1.0 4 # Defining the coefficients of the interaction between type 2 and type 2
pair_coeff      1 2 1.0 1.0 4 # Defining the coefficients of the interaction between type 1 and type 2

neighbor	0.3 bin # Building neighbour lists using the linked cell method with a skin layer of 0.3
neigh_modify	every 20 delay 0 check no # Frequency of building neighbour lists

thermo          1000  # Frequency of outputting thermodynamic data
thermo_style    custom step temp ke pe etotal vol press pxx pyy pzz  lx ly lz enthalpy # Thermodynamic data to output
timestep        0.001 # Timestep

fix             1 all nve/limit 0.1 # move atoms to prevent overlap due to initial random distribution
run             10000
  1 neighbor list requests
  update every 20 steps, delay 0 steps, check no
Step Temp KinEng PotEng TotEng Volume Press Pxx Pyy Pzz Lx Ly Lz Enthalpy
0          0.1       0.1497 2.7225591e+09 2.7225591e+09          512 1.0635022e+10 2.0243645e+10 3.480114e+09 8.181307e+09            8            8            8 1.3612821e+10
Averages over the last 6 of 11 rows, steps 5000 to 10000:
Temp KinEng PotEng TotEng Volume Press Pxx Pyy Pzz Lx Ly Lz Enthalpy
1027.39 1538.01 236.151 1774.16 512 2023.74 2018.89 2027.98 2024.34 8 8 8 3846.47
Loop time of 22.9104 on 1 procs for 10000 steps with 500 atoms

Pair  time (%) = 20.1873 (88.1143)
Neigh time (%) = 2.20014 (9.60325)
Comm  time (%) = 0.373916 (1.63208)
Outpt time (%) = 0.0001719 (0.000750315)
Other time (%) = 0.148824 (0.649593)

unfix           1

fix             1 all nvt temp 0.1 0.1 1 # Equilibrate at low temperature (Do not change this)
run             20000
Step Temp KinEng PotEng TotEng Volume Press Pxx Pyy Pzz Lx Ly Lz Enthalpy
10000     1019.048    1525.5149    241.67932    1767.1942          512    2037.9275     1937.371    2310.7041    1865.7074            8            8            8     3854.032
Averages over the last 11 of 21 rows, steps 20000 to 30000:
Temp KinEng PotEng TotEng Volume Press Pxx Pyy Pzz Lx Ly Lz Enthalpy
0.0979602 0.146646 -11.682 -11.5353 512 -2.58814 -2.598 -2.59724 -2.56919 8 8 8 -14.1856
Loop time of 40.9862 on 1 procs for 20000 steps with 500 atoms

Pair  time (%) = 36.2106 (88.3483)
Neigh time (%) = 3.72998 (9.10056)
Comm  time (%) = 0.668203 (1.63031)
Outpt time (%) = 0.000320435 (0.00078181)
Other time (%) = 0.377093 (0.920049)

unfix           1

fix             1 all nvt temp 0.1 4 1 # Increase to higher temperature (!!! Raise the second value after temp to desired higher temperature)
run             20000
Step Temp KinEng PotEng TotEng Volume Press Pxx Pyy Pzz Lx Ly Lz Enthalpy
30000    0.1112784   0.16658377   -11.731664   -11.565081          512   -2.4914951    -2.284754   -2.6316508   -2.5580806            8            8            8   -14.116372
Averages over the last 11 of 21 rows, steps 40000 to 50000:
Temp KinEng PotEng TotEng Volume Press Pxx Pyy Pzz Lx Ly Lz Enthalpy
2.88404 4.31741 -8.10495 -3.78755 512 19.0375 19.2457 18.7561 19.1108 8 8 8 15.7069
Loop time of 41.2851 on 1 procs for 20000 steps with 500 atoms

Pair  time (%) = 36.4377 (88.2588)
Neigh time (%) = 3.79941 (9.20287)
Comm  time (%) = 0.670614 (1.62435)
Outpt time (%) = 0.00031805 (0.000770377)
Other time (%) = 0.377021 (0.913213)

unfix           1

reset_timestep  0
log             log.equil
