LAMMPS (6 Apr 2015)
# HW4-prob4.input
# To form Cu-Zr metallic glass and analyze the resulting structure

units		metal  # metal implies quantities have units (distance: Angstrom, time:picoseconds, energy: eV, temperature: K, pressure: bars )
atom_style	atomic # Defining attributes associated with the atoms

region		simbox block 0 25 0 25 0 25 units box # Creating a region called simbox within the limits 0 and 25 and each direction . To format of the limits is as follows xlo xhi ylo yhi zlo zhi
create_box	2 simbox  # Create the bounding simulation box around the region simbox with two types of atoms
Created orthogonal box = (0 0 0) to (25 25 25)
create_atoms	1 random 500 58904 simbox  # Create the atoms of type 1 randomly  in the simulation box
Created 500 atoms
create_atoms    2 random 500 59904 simbox  # Create the atoms of type 2 randomly in the simulation box
Created 500 atoms

pair_style	eam/fs # Defining the type of  potential as EAM
pair_coeff	* * CuZr_mm.eam.fs Cu Zr # Defining the coefficients of the interaction between types of atoms using an external potential file
Reading potential file CuZr_mm.eam.fs with DATE: 2007-06-11

neighbor	0.3 bin
neigh_modify	every 20 delay 0 check no # frequency of creating neighbour listss

velocity        all create 300 87287 # Defining the velocity of the atoms to set the temperature. The final number is a random seed required for the probability distribution while the quantity before that is the temperature

#compute         msdcal all msd #Compute msd
#fix             5 all ave/time 1 1 1 c_msdcal[4] file MSD.data mode scalar
thermo          500 # Defining the frequency of output of thermodynamic data.
thermo_style    custom step temp ke pe etotal vol press pxx pyy pzz  lx ly lz enthalpy #Defining the thermodynamic quantities to output.
timestep        0.001 # timestep is in picoseconds for units metal

fix             1 all nve/limit 0.1  # Making sure there are no overlaps in the random distribution
run             10000
  1 neighbor list requests
  update every 20 steps, delay 0 steps, check no
Step Temp KinEng PotEng TotEng Volume Press Pxx Pyy Pzz Lx Ly Lz Enthalpy
0          300    38.739265 5.9223989e+13 5.9223989e+13        15625 2.0242621e+15 2.5824791e+15 1.384823e+15 2.105484e+15           25           25           25 7.8965319e+13
Averages over the last 11 of 21 rows, steps 5000 to 10000:
Temp KinEng PotEng TotEng Volume Press Pxx Pyy Pzz Lx Ly Lz Enthalpy
42325.1 5465.48 -2096.93 3368.56 15625 1.16722e+06 1.17721e+06 1.16438e+06 1.16005e+06 25 25 25 14751.7
Loop time of 68.3598 on 1 procs for 10000 steps with 1000 atoms

Pair  time (%) = 65.9191 (96.4297)
Neigh time (%) = 1.79509 (2.62594)
Comm  time (%) = 0.365601 (0.534819)
Outpt time (%) = 0.00092721 (0.00135637)
Other time (%) = 0.279042 (0.408197)

unfix           1

fix             1 all box/relax iso 0.0 vmax 0.001 # Conjugate gradient minimization to release pressure
minimize        1.0e-8 1.0e-8 10000 10000
  1 neighbor list requests
  update every 1 steps, delay 0 steps, check yes
Step Temp KinEng PotEng TotEng Volume Press Pxx Pyy Pzz Lx Ly Lz Enthalpy
10000    39308.531    5075.9454   -2288.6763    2787.2691        15625    1089306.9    1102826.7    1065007.3    1100086.6           25           25           25     13410.58
Loop time of 10.7331 on 1 procs for 1454 steps with 1000 atoms

Minimization stats:
  Stopping criterion = energy tolerance
  Energy initial, next-to-last, final =
  Force two-norm initial, final = 21723.3 2.35437
  Force max component initial, final = 21718 1.69966
  Final line search alpha, max atom move = 0.000580267 0.000986257
  Iterations, force evaluations = 1454 1887

Pair  time (%) = 9.94464 (92.6539)
Neigh time (%) = 0.498924 (4.64846)
Comm  time (%) = 0.0566828 (0.528112)
Outpt time (%) = 7.41482e-05 (0.000690836)
Other time (%) = 0.232784 (2.16884)

unfix           1
reset_timestep  0

dump            3 all custom 2000 dump.data id type x y z # Coordinates data file

fix             1 all npt temp 300 300 1 iso 0 0 100 # Equilibrate at 300 K
run             20000
  1 neighbor list requests
  update every 20 steps, delay 0 steps, check no
Step Temp KinEng PotEng TotEng Volume Press Pxx Pyy Pzz Lx Ly Lz Enthalpy
0    39308.531    5075.9454   -4789.4854    286.46006    18099.108    299609.26    305045.79    307578.64    286203.33    26.255425    26.255425    26.255425    3671.0187
Averages over the last 21 of 41 rows, steps 10000 to 20000:
Temp KinEng PotEng TotEng Volume Press Pxx Pyy Pzz Lx Ly Lz Enthalpy
299.889 38.7249 -4801.07 -4762.34 17902.8 8827.83 5730.18 13998.3 6754.98 26.16 26.16 26.16 -4664.58
Loop time of 106.087 on 1 procs for 20000 steps with 1000 atoms

Pair  time (%) = 101.297 (95.4843)
Neigh time (%) = 2.85485 (2.69104)
Comm  time (%) = 0.543225 (0.512055)
Outpt time (%) = 0.0167854 (0.0158223)
Other time (%) = 1.37571 (1.29678)

unfix           1

fix             1 all npt temp 300 3000 1 iso 0 0 100 # Melt by raising temperature to 3000 K
run             80000
Step Temp KinEng PotEng TotEng Volume Press Pxx Pyy Pzz Lx Ly Lz Enthalpy
20000    275.02682    35.514457    -4806.516   -4771.0015    18158.879   -9342.4188   -11855.014   -5403.4037   -10768.839    26.284296    26.284296    26.284296   -4876.8874
Averages over the last 81 of 161 rows, steps 60000 to 100000:
Temp KinEng PotEng TotEng Volume Press Pxx Pyy Pzz Lx Ly Lz Enthalpy
2283.1 294.819 -4403.66 -4108.84 19599.4 243.721 -142.562 266.512 607.214 26.96 26.96 26.96 -4106.04
Loop time of 415.855 on 1 procs for 80000 steps with 1000 atoms

Pair  time (%) = 396.584 (95.3659)
Neigh time (%) = 11.5404 (2.77511)
Comm  time (%) = 2.17031 (0.521891)
Outpt time (%) = 0.0664191 (0.0159717)
Other time (%) = 5.49389 (1.32111)

unfix           1

write_restart	liquid.restart

fix             1 all npt temp 3000 3000 1 iso 0 0 100 # Equilibrate at 3000 K
run             100000
Step Temp KinEng PotEng TotEng Volume Press Pxx Pyy Pzz Lx Ly Lz Enthalpy
100000    2818.7575    363.98865   -4248.1928   -3884.2042    20357.362    5782.0491   -191.35002    9705.8151    7831.6823    27.304894    27.304894    27.304894   -3810.7371
Averages over the last 101 of 201 rows, steps 150000 to 200000:
Temp KinEng PotEng TotEng Volume Press Pxx Pyy Pzz Lx Ly Lz Enthalpy
2996.54 386.946 -4263.97 -3877.03 20395.2 1550.53 1685.87 1173.58 1792.14 27.3218 27.3218 27.3218 -3857.36
Loop time of 491.619 on 1 procs for 100000 steps with 1000 atoms

Pair  time (%) = 467.437 (95.0812)
Neigh time (%) = 14.5342 (2.95639)
Comm  time (%) = 2.70939 (0.551116)
Outpt time (%) = 0.0835493 (0.0169947)
Other time (%) = 6.85448 (1.39427)

unfix           1

reset_timestep	0
log		log.quench
