LAMMPS (6 Apr 2015)
# HW4-prob3.input
# Calculate the coefficient of thermal expansion (CTE) for Copper
# Any line after '#' has been commented out

units		metal  # metal implies quantities have units (distance: angstrom, time: picoseconds, energy: eV, temperature: K, pressure: bars )
atom_style	atomic # Defining attributes associated with the atoms

read_data       Cu_relaxed_lattice.input # reading in the coordinates
  orthogonal box = (-0.0410052 -0.0410052 -0.0410052) to (29.153 29.153 29.153)
  reading atoms ...
  2048 atoms
  reading velocities ...
  2048 velocities

pair_style	eam/fs # Defining the type of  potential as EAM
pair_coeff	* * CuZr_mm.eam.fs Cu # Defining the coefficients of the interaction between types of atoms using an external potential file
Reading potential file CuZr_mm.eam.fs with DATE: 2007-06-11

neighbor	0.3 bin
neigh_modify	every 20 delay 0 check no # frequency of creating neighbour lists

velocity        all create 300 87287 # Defining the velocity of the atoms to set the temperature. The final number is a random seed required for the probability distribution while the quantity before that is the temperature

thermo          10 # Defining the frequency of output of thermodynamic data.
thermo_style    custom step temp ke pe etotal vol press pxx pyy pzz  lx ly lz enthalpy #Defining the thermodynamic quantities to output.
timestep        0.001 # timestep is in picoseconds for units metal

dump            3 all custom 10000 dump.data id type x y z # Coordinates data file

fix             1 all npt temp 300 300 0.1 iso 0.0 0.0 5 # !!! Equilibrating at 300 K, change both the values after temp to the desired temperature
run             25000
  1 neighbor list requests
  update every 20 steps, delay 0 steps, check no
Step Temp KinEng PotEng TotEng Volume Press Pxx Pyy Pzz Lx Ly Lz Enthalpy
0          300    79.378655    -6641.179   -6561.8004     24881.77      2049.49    1974.2184    2033.3441    2140.9075     29.19401     29.19401     29.19401   -6529.9718
Averages over the last 1251 of 2501 rows, steps 12500 to 25000:
Temp KinEng PotEng TotEng Volume Press Pxx Pyy Pzz Lx Ly Lz Enthalpy
300.937 79.6266 -6642.61 -6562.98 24913.9 46.5113 -33.8543 68.1295 105.259 29.2066 29.2066 29.2066 -6562.3
Loop time of 356.839 on 1 procs for 25000 steps with 2048 atoms

Pair  time (%) = 342.56 (95.9983)
Neigh time (%) = 9.44496 (2.64684)
Comm  time (%) = 1.29315 (0.362391)
Outpt time (%) = 0.0949481 (0.0266081)
Other time (%) = 3.44646 (0.965829)

unfix           1
