LAMMPS (23 Jun 2022 - Update 2)
units           real
atom_style      full

pair_style      lj/cut/tip4p/long 1 2 1 1 0.14714951 8
bond_style      class2
angle_style     harmonic
kspace_style    pppm/tip4p 0.0001
boundary        p p p
read_data       data.h2o-smart
Reading data file ...
  orthogonal box = (-0.1607 0.08867 -0.104992) to (12.2637 12.51307 12.319408)
  reading atoms ...
  192 atoms
  scanning bonds ...
  scanning angles ...
  reading bonds ...
  128 bonds
  reading angles ...
  64 angles
Finding 1-2 1-3 1-4 neighbors ...
     2 = max # of 1-2 neighbors
     1 = max # of 1-3 neighbors
     1 = max # of 1-4 neighbors
     2 = max # of special neighbors

region          simbox block -0.160700 12.263700 0.088670 12.513070 -0.104992 12.319408

pair_coeff  * 2  0.0     0.0
pair_coeff  1 1  0.1852  3.1589022

#q-tip4pf bond parameters
bond_coeff      1 0.9419 607.19354  -1388.6516 1852.577
angle_coeff     1 43.93  107.4

timestep        0.5

velocity        all create 300.0 1112 dist gaussian mom yes

thermo          100
thermo_style    custom step temp vol press density etotal

mass 3 28.990 # ion
mass 4 35.453 # ion

set type 3 charge 1.0
Setting atom values ...
  0 settings made for charge
set type 4 charge -1.0
Setting atom values ...
  0 settings made for charge

pair_coeff 3 3 0.04690 2.4299 # ion
pair_coeff 4 4 0.1500 4.04470 # ion

create_atoms    3 random 5 676 simbox
Created 5 atoms
create_atoms    4 random 5 234 simbox
Created 5 atoms

# smart sampling with GLE: best efficiency on slow diffusive modes,
# and as good as possible on higher-frequency modes
#fix             1 all gle 6 300.0 300.0 31415 smart.A
fix mynve all nve/limit 0.1
dump           1 all atom 100 h2o-smart.lammpstrj

#dump           2 all image 1000 h2o-smart.*.jpg element element #               zoom 1.4
#dump_modify    2 pad 5 element O H

#dump           3 all movie 100 movie.mp4 element element #               zoom 1.4
#dump_modify    3 pad 5 element O H

run             10000
PPPM initialization ...
  extracting TIP4P info from pair style
  G vector (1/distance) = 0.35241695
  grid = 10 10 10
  stencil order = 5
  estimated absolute RMS force accuracy = 0.022396405
  estimated relative force accuracy = 6.7446109e-05
  3d grid and FFT values/proc = 4913 1000
Generated 5 of 6 mixed pair_coeff terms from geometric mixing rule
  update every 1 steps, delay 10 steps, check yes
Step          Temp          Volume         Press         Density         TotEng
0   285.07463      1917.9014      3.9416943e+08  1.277244       2754822.3
Averages over the last 51 of 101 rows, steps 5000 to 10000:
Temp Volume Press Density TotEng
5378.96 1917.9 39713.7 1.27724 -38457.3
Loop time of 24.0704 on 1 procs for 10000 steps with 202 atoms

unfix mynve

fix 1 all nvt temp 300 300 1

run 10000
PPPM initialization ...
  extracting TIP4P info from pair style
  G vector (1/distance) = 0.35241695
  grid = 10 10 10
  stencil order = 5
  estimated absolute RMS force accuracy = 0.022396405
  estimated relative force accuracy = 6.7446109e-05
  3d grid and FFT values/proc = 4913 1000
Generated 5 of 6 mixed pair_coeff terms from geometric mixing rule
Step          Temp          Volume         Press         Density         TotEng
10000   4714.6038      1917.9014      38558.201      1.277244      -38005.826
Averages over the last 51 of 101 rows, steps 15000 to 20000:
Temp Volume Press Density TotEng
303 1917.9 7038.66 1.27724 -469.362
Loop time of 21.9878 on 1 procs for 10000 steps with 202 atoms
