LAMMPS (6 Apr 2015)
# HW4_Prob1.input

units		lj  # lj implies quantities are in LJ internal units
atom_style	atomic # Defining attributes associated with the atoms

region          simbox  block 0 8 0 8 0 8
create_box	2 simbox  # Create 2 types of atoms in the region simbox
Created orthogonal box = (0 0 0) to (8 8 8)
create_atoms    1 random 250 676 simbox # create atoms of type 1 randomly in simbox
Created 250 atoms
create_atoms    2 random 250 776 simbox # create atoms of type 2 randomly in simbox
Created 250 atoms
mass		* 1.0     # Defining the mass of all atoms

velocity	all create 0.1 87287 # Defining the velocity of the atoms to set the temperature. The final number is a random seed required for the probability distribution while the quantity before that is the temperature

pair_style	lj/cut 4 # Defining the lj potential with a interaction cutoff of 4
pair_coeff	1 1 1.0 1.0 4 # Defining the coefficients of the interaction between type 1 and type 1
pair_coeff      2 2 1.0 1.0 4 # Defining the coefficients of the interaction between type 2 and type 2
pair_coeff      1 2 4.0 1.0 4 # Defining the coefficients of the interaction between type 1 and type 2

neighbor	0.3 bin # Building neighbour lists using the linked cell method with a skin layer of 0.3
neigh_modify	every 20 delay 0 check no # Frequency of building neighbour lists

thermo          1000  # Frequency of outputting thermodynamic data
thermo_style    custom step temp ke pe etotal vol press pxx pyy pzz  lx ly lz enthalpy # Thermodynamic data to output
timestep        0.001 # Timestep

fix             1 all nve/limit 0.1 # move atoms to prevent overlap due to initial random distribution
run             10000
  1 neighbor list requests
  update every 20 steps, delay 0 steps, check no
Step Temp KinEng PotEng TotEng Volume Press Pxx Pyy Pzz Lx Ly Lz Enthalpy
0          0.1       0.1497 2.2226108e+09 2.2226108e+09          512 8.6821021e+09 1.4859595e+10 2.1264369e+09 9.0602742e+09            8            8            8 1.1113083e+10
Averages over the last 6 of 11 rows, steps 5000 to 10000:
Temp KinEng PotEng TotEng Volume Press Pxx Pyy Pzz Lx Ly Lz Enthalpy
970.798 1453.28 241.762 1695.05 512 2032.72 2112.8 1987.4 1997.97 8 8 8 3776.55
Loop time of 23.0322 on 1 procs for 10000 steps with 500 atoms

Pair  time (%) = 20.3013 (88.1434)
Neigh time (%) = 2.20711 (9.58272)
Comm  time (%) = 0.373826 (1.62306)
Outpt time (%) = 0.000172138 (0.000747382)
Other time (%) = 0.149719 (0.650044)

unfix           1

fix             1 all nvt temp 0.1 0.1 1 # Equilibrate at low temperature (Do not change this)
run             20000
Step Temp KinEng PotEng TotEng Volume Press Pxx Pyy Pzz Lx Ly Lz Enthalpy
10000    998.55343    1494.8345    235.29561    1730.1301          512    2030.3311    1985.8515     2183.343    1921.7989            8            8            8    3809.1892
Averages over the last 11 of 21 rows, steps 20000 to 30000:
Temp KinEng PotEng TotEng Volume Press Pxx Pyy Pzz Lx Ly Lz Enthalpy
0.0967121 0.144778 -20.4549 -20.3101 512 -6.19054 -5.77465 -6.40387 -6.39312 8 8 8 -26.6492
Loop time of 41.2477 on 1 procs for 20000 steps with 500 atoms

Pair  time (%) = 36.4552 (88.3811)
Neigh time (%) = 3.74323 (9.075)
Comm  time (%) = 0.668311 (1.62024)
Outpt time (%) = 0.000320196 (0.000776276)
Other time (%) = 0.38066 (0.922863)

unfix           1

fix             1 all nvt temp 0.1 1.5 1 # Increase to higher temperature (!!! Raise the second value after temp to desired higher temperature)
run             20000
Step Temp KinEng PotEng TotEng Volume Press Pxx Pyy Pzz Lx Ly Lz Enthalpy
30000  0.098120655   0.14688662   -20.536593   -20.389707          512   -6.2919585   -6.1405117    -6.393196   -6.3421677            8            8            8   -26.832672
Averages over the last 11 of 21 rows, steps 40000 to 50000:
Temp KinEng PotEng TotEng Volume Press Pxx Pyy Pzz Lx Ly Lz Enthalpy
1.12601 1.68564 -19.0835 -17.3979 512 1.58194 2.24019 1.44386 1.06178 8 8 8 -15.778
Loop time of 41.125 on 1 procs for 20000 steps with 500 atoms

Pair  time (%) = 36.3543 (88.3996)
Neigh time (%) = 3.7272 (9.06311)
Comm  time (%) = 0.663025 (1.61222)
Outpt time (%) = 0.000338793 (0.000823812)
Other time (%) = 0.380079 (0.924204)

unfix           1

reset_timestep  0
log             log.equil
